Version 4
SHEET 1 880 680
WIRE 48 0 -48 0
WIRE 160 0 128 0
WIRE 208 0 160 0
WIRE 336 0 288 0
WIRE -48 64 -48 0
WIRE 160 112 160 0
WIRE 192 112 160 112
WIRE 336 128 336 0
WIRE 336 128 256 128
WIRE 192 144 160 144
WIRE -48 208 -48 144
WIRE 160 208 160 144
WIRE 160 208 -48 208
WIRE -48 224 -48 208
FLAG -48 224 0
FLAG -256 -32 V+
FLAG -128 -32 V-
FLAG -128 48 0
FLAG -256 48 0
FLAG 224 96 V+
FLAG 224 160 V-
SYMBOL Opamps\\LT1014 224 64 R0
SYMATTR InstName U1
SYMBOL res 304 -16 R90
WINDOW 0 -7 55 VBottom 2
WINDOW 3 32 56 VTop 2
SYMATTR InstName R1
SYMATTR Value 8.2Meg
SYMBOL res 144 -16 R90
WINDOW 0 0 56 VBottom 2
WINDOW 3 38 55 VTop 2
SYMATTR InstName R2
SYMATTR Value 1.5k
SYMBOL voltage -48 48 R0
WINDOW 123 0 0 Left 2
WINDOW 39 0 0 Left 2
SYMATTR InstName V1
SYMATTR Value 0.1
SYMBOL voltage -256 -48 R0
WINDOW 123 0 0 Left 2
WINDOW 39 0 0 Left 2
SYMATTR InstName V2
SYMATTR Value 15
SYMBOL voltage -128 64 R180
WINDOW 123 0 0 Left 2
WINDOW 39 0 0 Left 2
SYMATTR InstName V3
SYMATTR Value 15
TEXT -242 248 Left 2 !.tran 0 1 0 0.01
